** vim:fileencoding=utf-8:fdm=marker:ft=abaqus

** E1 = 240.30 GPa, E2 = 240.30 GPa, E3 = 5.80 GPa
** ν12 = 0.01, ν13 = 0.30, ν23 = 0.30
** G12 = 2.90 GPa, G13 = 2.90 GPa, G23 = 2.90 GPa
** All values in SI units: m,s,kg,N,Pa,J
** (length,time,mass,force,stress,energy).
*MATERIAL, NAME=M0-90_xn90
*ELASTIC,TYPE=ENGINEERING CONSTANTS
2.40304e+11,2.40304e+11,5.8e+09,0.007,0.300,0.300,2.9e+09,2.9e+09
2.9e+09,293
*DENSITY
1720
