** file: M0-90.inp
** vim:fileencoding=utf-8:fdm=marker:ft=abaqus
**
** Copyright © 2019 R.F. Smith <rsmith@xs4all.nl>
** Created: 2019-10-27T18:11:37+0100
** Last modified: 2019-10-27T18:12:23+0100

*MATERIAL, NAME=M0-90
*ELASTIC,TYPE=ENGINEERING CONSTANTS
6.9232e+10,6.9232e+10,5.8e+09,0.025,0.300,0.300,2.9e+09,2.9e+09
2.9e+09,293
*DENSITY
1490
