** file: M1.4301.inp
** vim:fileencoding=utf-8:fdm=marker:ft=abaqus
**
** Copyright © 2020 R.F. Smith <rsmith@xs4all.nl>
** Created: 2020-07-17T12:14:29+0200
** Last modified: 2020-07-17T12:15:12+0200
*MATERIAL, NAME=M1.4301
*ELASTIC, TYPE=ISO
200e9,0.30,293
*DENSITY
7900
** σ̅ = 210 MPa
