** file: M1.4301.inp
** vim:fileencoding=utf-8:fdm=marker:ft=abaqus
**
** Author: R.F. Smith <rsmith@xs4all.nl>
** Created: 2020-07-17T12:14:29+0200
** Last modified: 2020-07-22T21:58:17+0200
** All values in SI units: m,s,kg,N,Pa,J
** (length,time,mass,force,stress,energy).

*MATERIAL, NAME=M1.4301
*ELASTIC, TYPE=ISO
200e9,0.30,293
*PLASTIC, HARDENING=COMBINED
205e6,0.002,293
300e6,0.01787,293
400e6,0.0935,293
475e6,0.25124,293
515e6,0.40,293
*DENSITY
7900
** σ̅ = 205 MPa
