** vim:fileencoding=utf-8:fdm=marker:ft=abaqus
** All values in SI units: m,s,kg,N,Pa,J
** (length,time,mass,force,stress,energy).

*MATERIAL, NAME=M1.4301
*ELASTIC, TYPE=ISO
200e9,0.30,293
*PLASTIC, HARDENING=COMBINED
205e6,0.002,293
300e6,0.01787,293
400e6,0.0935,293
475e6,0.25124,293
515e6,0.40,293
*DENSITY
7900
** σ̅ = 205 MPa
