** file: M_EN_AW_5083.inp
** vim:fileencoding=utf-8:fdm=marker:ft=abaqus
**
** Author: R.F. Smith <rsmith@xs4all.nl>
** Created: 2019-12-11T19:58:04+0100
** Last modified: 2020-07-22T22:20:56+0200
** All values in SI units: m,s,kg,N,Pa,J
** (length,time,mass,force,stress,energy).

*MATERIAL, NAME=M_EN_AW_5083
*ELASTIC, TYPE=ISO
71e9,0.33,293
*PLASTIC, HARDENING=COMBINED
150e6,0.002,293
175e6,0.00485,293
200e6,0.01046,293
250e6,0.03773,293
280e6,0.0724,293
*DENSITY
2660
