** file: M_EN_AW_5083.inp
** vim:fileencoding=utf-8:fdm=marker:ft=abaqus
**
** Author: R.F. Smith <rsmith@xs4all.nl>
** Created: 2019-12-11T19:58:04+0100
** Last modified: 2020-07-17T13:24:34+0200
** All values in SI units: m,s,kg,N,Pa,J
** (length,time,mass,force,stress,energy).

*MATERIAL, NAME=M_EN_AW_5083
*ELASTIC, TYPE=ISO
71e9,0.33,293
*DENSITY
2660
** temper H111: σ̅ = 115e6 Pa
