** vim:fileencoding=utf-8:fdm=marker:ft=abaqus
** All values in SI units: m,s,kg,N,Pa,J
** (length,time,mass,force,stress,energy).

*MATERIAL, NAME=MairexT92.80
*ELASTIC, TYPE=ISO
** Just like for Rohacell the E value is reduced to give a correct shear
** modules with a ν van 0.499.
** According to the datasheet: E = 90, G = 14
** So: E = 14*(2*(1+0.499)) ≈ 41.97 MPa
41.97e6,0.499,293
*DENSITY
80
** τ̅ = 0,72 MPa
