** vim:fileencoding=utf-8:fdm=marker:ft=abaqus
** All values in SI units: m,s,kg,N,Pa,J
** (length,time,mass,force,stress,energy).

*MATERIAL, NAME=MbaltekSB50
*ELASTIC, TYPE=ENGINEERING CONSTANTS
2.097e+08,2.097e+08,2.097e+09,0.5,0.3,0.3,5.3e7,1.06e8
1.06e8,293
*DENSITY
94
** τ̅ = 1.8 MPa
