** vim:fileencoding=utf-8:fdm=marker:ft=abaqus
** All values in SI units: m,s,kg,N,Pa,J
** (length,time,mass,force,stress,energy).

** Generic PET schuim, 65 kg/m3
*MATERIAL, NAME=MPET60
*ELASTIC, TYPE=ISO
35e6,0.499,293
*DENSITY
65
