** file: Mqi_xn90.inp
** vim:fileencoding=utf-8:fdm=marker:ft=abaqus
**
** Copyright © 2019 R.F. Smith <rsmith@xs4all.nl>
** Created: 2019-11-27T16:23:33+0100
** Last modified: 2019-11-27T16:39:58+0100

** Data in SI units!
*MATERIAL, NAME=Mqi_xn90
*ELASTIC,TYPE=ENGINEERING CONSTANTS
1.62399e+11,1.62399e+11,5.8e+09,0.329,0.329,0.300,6.1094e+10,2.9e+09
2.9e+09,293
*DENSITY
1720

