** file: MrohacellIG71.inp
** vim:fileencoding=utf-8:fdm=marker:ft=abaqus
**
** Copyright © 2020 R.F. Smith <rsmith@xs4all.nl>
** Created: 2019-10-27T18:12:38+0100
** Last modified: 2019-10-27T18:13:19+0100

*MATERIAL, NAME=MrohacellIG71
*ELASTIC, TYPE=ISO
87e6,0.499,293
*DENSITY
75
