** vim:fileencoding=utf-8:fdm=marker:ft=abaqus
** All values in SI units: m,s,kg,N,Pa,J
** (length,time,mass,force,stress,energy).

*MATERIAL, NAME=MrohacellIG51
*ELASTIC,TYPE=ENGINEERING CONSTANTS
70e6,70e6,70e6,0.01,0.01,0.01,19e6,19e6
19e6,393
*DENSITY
52
** τ̅ = 0,8 MPa
