** vim:fileencoding=utf-8:fdm=marker:ft=abaqus
** All values in SI units: m,s,kg,N,Pa,J
** (length,time,mass,force,stress,energy).

*MATERIAL, NAME=MS235J
*ELASTIC, TYPE=ISO
210e9,0.30,293
*DENSITY
7850
** σ̅ = 235 MPa
