** file: Mtriax_xn90.inp
** vim:fileencoding=utf-8:fdm=marker:ft=abaqus
**
** Copyright © 2019 R.F. Smith <rsmith@xs4all.nl>
** Created: 2019-11-27T16:23:33+0100
** Last modified: 2019-11-27T16:33:12+0100

** Data in SI units!
*MATERIAL, NAME=Mtriax_xn90
*ELASTIC,TYPE=ENGINEERING CONSTANTS
2.90503e+11,4.6082e+10,5.8e+09,0.910,0.910,0.300,4.9455e+10,2.9e+09
2.9e+09,293
*DENSITY
1720
