** file: Mud.inp
** vim:fileencoding=utf-8:fdm=marker:ft=abaqus
**
** Copyright © 2019 R.F. Smith <rsmith@xs4all.nl>
** Created: 2019-10-27T18:16:13+0100
** Last modified: 2019-11-07T22:36:35+0100

** HS carbon fiber + epoxy [0], vf 55%
*MATERIAL, NAME=Mud
*ELASTIC,TYPE=ENGINEERING CONSTANTS
1.32205e+11,5.8e+09,5.8e+09,0.300,0.300,0.300,2.9e+09,2.9e+09
2.9e+09,293
*DENSITY
1490
