** file: Mud_xn90.inp
** vim:fileencoding=utf-8:fdm=marker:ft=abaqus
**
** Copyright © 2019 R.F. Smith <rsmith@xs4all.nl>
** Created: 2019-11-27T16:23:33+0100
** Last modified: 2019-11-27T16:24:58+0100

*MATERIAL, NAME=Mud_xn90
*ELASTIC,TYPE=ENGINEERING CONSTANTS
4.74305e+11,5.8e+09,5.8e+09,0.300,0.300,0.300,2.9e+09,2.9e+09
2.9e+09,293
*DENSITY
1720
