** file: hpl.inp
** vim:fileencoding=utf-8:ft=abaqus
**
** Author: R.F. Smith <rsmith@xs4all.nl>
** Created: 2023-10-13T21:37:01+0200
** Last modified: 2023-10-13T21:37:51+0200

*MATERIAL, NAME=Mhpl
*ELASTIC, TYPE=ISO
9e9,0.3,293
*DENSITY
1350

