** vim:fileencoding=utf-8:ft=abaqus
** All values in SI units: m,s,kg,N,Pa,J
** (length,time,mass,force,stress,energy).

** High pressure laminate. Fiber reinforced thermoset plastic
** Made from Kraft paper and phenolic/formaldehyde resin
** Standard: ISO 4586

** Using data from: https://www.pro-hpl.org/assets/uploads/prohpl/files/
** TL_150623_technical_characteristics_and_physical_properties_of_HPL.pdf
** In-plane moduli and Poisson constant overridden by data from 1242_Fulltext.pdf, page 82.
** “Hygro-Elastic Deformation of High Pressure Laminates”, Bijan Adl Zarrabi,
** 1998.
** The “machine direction” is here the 1 direction.
** Failure strain is 1.44% in direction 1, 2.07% in direction 2.

*MATERIAL, NAME=HPL_CGS
** CGS = compact, general purpose, standard
** tensile strength: at least 70 MPa
*ELASTIC, TYPE=ENGINEERING CONSTANTS
17.7e9,12.4e9,10e9,0.35,0.3,0.3,5.7e9,3.8e9,
3.8e9,293
*EXPANSION,TYPE=ORTHO
9e-6,16e-6,9e-6,293
*DENSITY
1350
