** vim:fileencoding=utf-8:fdm=marker:ft=abaqus
** All values in SI units: m,s,kg,N,Pa,J
** (length,time,mass,force,stress,energy).

** High pressure laminate. Fiber reinforced thermoset plastic
** Made from Kraft paper and phenolic/formaldehyde resin
** Standard: ISO 4586

*MATERIAL, NAME=HPL_CGS
** CGS = compact, general purpose, standard
** tensile strength: at least 70 MPa
*ELASTIC, TYPE=ISO
10e9,0.3,293
*DENSITY
1350

*MATERIAL, NAME=HPL_CGF
** CGF = compact, general purpose, flame-retardant
** tensile strength: at least 60 MPa
*ELASTIC, TYPE=ISO
9e9,0.3,293
*DENSITY
1350
